*SPEF "IEEE 1481-1998"
*DESIGN "myfilter"
*DATE "Thu Oct 21 20:52:57 2021"
*VENDOR "Cadence Design Systems, Inc."
*PROGRAM "Innovus"
*VERSION "17.11-s080_1"
*DESIGN_FLOW "COUPLING C" "PIN_CAP NONE" "NAME_SCOPE LOCAL"
*DIVIDER /
*DELIMITER :
*BUS_DELIMITER []
*T_UNIT 1 NS
*C_UNIT 1 PF
*R_UNIT 1 OHM
*L_UNIT 1 HENRY

// MMMC spef file for corner 'my_rc'

*NAME_MAP

*1 CLK
*2 RST_N
*3 VIN
*4 VOUT
*5 H0[10]
*6 H0[9]
*7 H0[8]
*8 H0[7]
*9 H0[6]
*10 H0[5]
*11 H0[4]
*12 H0[3]
*13 H0[2]
*14 H0[1]
*15 H0[0]
*16 H1[10]
*17 H1[9]
*18 H1[8]
*19 H1[7]
*20 H1[6]
*21 H1[5]
*22 H1[4]
*23 H1[3]
*24 H1[2]
*25 H1[1]
*26 H1[0]
*27 H2[10]
*28 H2[9]
*29 H2[8]
*30 H2[7]
*31 H2[6]
*32 H2[5]
*33 H2[4]
*34 H2[3]
*35 H2[2]
*36 H2[1]
*37 H2[0]
*38 H3[10]
*39 H3[9]
*40 H3[8]
*41 H3[7]
*42 H3[6]
*43 H3[5]
*44 H3[4]
*45 H3[3]
*46 H3[2]
*47 H3[1]
*48 H3[0]
*49 H4[10]
*50 H4[9]
*51 H4[8]
*52 H4[7]
*53 H4[6]
*54 H4[5]
*55 H4[4]
*56 H4[3]
*57 H4[2]
*58 H4[1]
*59 H4[0]
*60 H5[10]
*61 H5[9]
*62 H5[8]
*63 H5[7]
*64 H5[6]
*65 H5[5]
*66 H5[4]
*67 H5[3]
*68 H5[2]
*69 H5[1]
*70 H5[0]
*71 H6[10]
*72 H6[9]
*73 H6[8]
*74 H6[7]
*75 H6[6]
*76 H6[5]
*77 H6[4]
*78 H6[3]
*79 H6[2]
*80 H6[1]
*81 H6[0]
*82 H7[10]
*83 H7[9]
*84 H7[8]
*85 H7[7]
*86 H7[6]
*87 H7[5]
*88 H7[4]
*89 H7[3]
*90 H7[2]
*91 H7[1]
*92 H7[0]
*93 H8[10]
*94 H8[9]
*95 H8[8]
*96 H8[7]
*97 H8[6]
*98 H8[5]
*99 H8[4]
*100 H8[3]
*101 H8[2]
*102 H8[1]
*103 H8[0]
*104 H9[10]
*105 H9[9]
*106 H9[8]
*107 H9[7]
*108 H9[6]
*109 H9[5]
*110 H9[4]
*111 H9[3]
*112 H9[2]
*113 H9[1]
*114 H9[0]
*115 H10[10]
*116 H10[9]
*117 H10[8]
*118 H10[7]
*119 H10[6]
*120 H10[5]
*121 H10[4]
*122 H10[3]
*123 H10[2]
*124 H10[1]
*125 H10[0]
*126 DIN[10]
*127 DIN[9]
*128 DIN[8]
*129 DIN[7]
*130 DIN[6]
*131 DIN[5]
*132 DIN[4]
*133 DIN[3]
*134 DIN[2]
*135 DIN[1]
*136 DIN[0]
*137 DOUT[10]
*138 DOUT[9]
*139 DOUT[8]
*140 DOUT[7]
*141 DOUT[6]
*142 DOUT[5]
*143 DOUT[4]
*144 DOUT[3]
*145 DOUT[2]
*146 DOUT[1]
*147 DOUT[0]
*148 FE_OFN17_RST_N
*149 FE_OFN16_RST_N
*150 FE_OFN15_RST_N
*151 FE_OFN14_RST_N
*152 FE_OFN13_RST_N
*153 FE_OFN12_RST_N
*154 FE_OFN11_RST_N
*155 FE_OFN10_RST_N
*156 FE_OFN9_mult_85_I10_n476
*157 FE_OFN8_mult_85_I2_n476
*158 FE_OFN7_mult_85_I8_n476
*159 FE_OFN6_mult_85_I5_n476
*160 FE_OFN5_mult_85_I7_n476
*161 FE_OFN4_mult_85_I3_n476
*162 FE_OFN3_mult_85_I6_n476
*163 FE_OFN2_mult_85_I4_n476
*164 FE_OFN1_mult_85_I9_n476
*165 FE_OFN0_mult_85_n476
*166 N0
*167 N1
*168 N2
*169 N3
*170 N4
*171 N5
*172 N6
*173 N7
*174 N8
*175 N9
*176 N10
*177 N11
*178 N12
*179 N13
*180 N14
*181 N15
*182 N16
*183 N17
*184 N18
*185 N19
*186 N20
*187 N21
*188 N22
*189 N23
*190 N24
*191 N25
*192 N26
*193 N27
*194 N28
*195 N29
*196 N30
*197 N31
*198 N32
*199 N33
*200 N34
*201 N35
*202 N36
*203 N37
*204 N38
*205 N39
*206 N40
*207 N41
*208 N42
*209 N43
*210 N44
*211 N45
*212 N46
*213 N47
*214 N48
*215 N49
*216 N50
*217 N51
*218 N52
*219 N53
*220 N54
*221 N55
*222 N56
*223 N57
*224 N58
*225 N59
*226 N60
*227 N61
*228 N62
*229 N63
*230 N64
*231 N65
*232 N66
*233 N67
*234 N68
*235 N69
*236 N70
*237 N71
*238 N72
*239 N73
*240 N74
*241 N75
*242 N76
*243 N77
*244 N78
*245 N79
*246 N80
*247 N81
*248 N82
*249 N83
*250 N84
*251 N85
*252 N86
*253 N87
*254 N88
*255 N89
*256 N90
*257 N91
*258 N92
*259 N93
*260 N94
*261 N95
*262 N96
*263 N97
*264 N98
*265 N99
*266 N100
*267 N101
*268 N102
*269 N103
*270 N104
*271 N105
*272 N106
*273 N107
*274 N108
*275 N109
*276 N110
*277 N111
*278 N112
*279 N113
*280 N114
*281 N115
*282 N116
*283 N117
*284 N118
*285 N119
*286 N120
*287 N220
*288 N221
*289 N222
*290 N223
*291 N224
*292 N225
*293 N226
*294 N227
*295 N228
*296 N229
*297 N230
*298 vin_tmp2
*299 n4
*300 n7
*301 n8
*302 n9
*303 n10
*304 N219
*305 N218
*306 N217
*307 N216
*308 N215
*309 N214
*310 N213
*311 N212
*312 N211
*313 N210
*314 N209
*315 N208
*316 N207
*317 N206
*318 N205
*319 N204
*320 N203
*321 N202
*322 N201
*323 N200
*324 N199
*325 N198
*326 N197
*327 N196
*328 N195
*329 N194
*330 N193
*331 N192
*332 N191
*333 N190
*334 N189
*335 N188
*336 N187
*337 N186
*338 N185
*339 N184
*340 N183
*341 N182
*342 N181
*343 N180
*344 N179
*345 N178
*346 N177
*347 N176
*348 N175
*349 N174
*350 N173
*351 N172
*352 N171
*353 N170
*354 N169
*355 N168
*356 N167
*357 N166
*358 N165
*359 N164
*360 N163
*361 N162
*362 N161
*363 N160
*364 N159
*365 N158
*366 N157
*367 N156
*368 N155
*369 N154
*370 N153
*371 N152
*372 N151
*373 N150
*374 N149
*375 N148
*376 N147
*377 N146
*378 N145
*379 N144
*380 N143
*381 N142
*382 N141
*383 N140
*384 N139
*385 N138
*386 N137
*387 N136
*388 N135
*389 N134
*390 N133
*391 N132
*392 N131
*393 N130
*394 N129
*395 N128
*396 N127
*397 N126
*398 N125
*399 N124
*400 N123
*401 N122
*402 N121
*403 n33
*404 n36
*405 n37
*406 add_6_root_add_0_root_add_97_10_n1
*407 add_8_root_add_0_root_add_97_10_n1
*408 add_9_root_add_0_root_add_97_10_n2
*409 add_7_root_add_0_root_add_97_10_n2
*410 add_2_root_add_0_root_add_97_10_n1
*411 add_3_root_add_0_root_add_97_10_n1
*412 add_5_root_add_0_root_add_97_10_n2
*413 add_1_root_add_0_root_add_97_10_n1
*414 add_4_root_add_0_root_add_97_10_n1
*415 add_0_root_add_0_root_add_97_10_n1
*416 mult_85_I11_n502
*417 mult_85_I11_n501
*418 mult_85_I11_n500
*419 mult_85_I11_n499
*420 mult_85_I11_n498
*421 mult_85_I11_n497
*422 mult_85_I11_n496
*423 mult_85_I11_n495
*424 mult_85_I11_n494
*425 mult_85_I11_n493
*426 mult_85_I11_n492
*427 mult_85_I11_n491
*428 mult_85_I11_n490
*429 mult_85_I11_n489
*430 mult_85_I11_n488
*431 mult_85_I11_n487
*432 mult_85_I11_n486
*433 mult_85_I11_n485
*434 mult_85_I11_n484
*435 mult_85_I11_n483
*436 mult_85_I11_n482
*437 mult_85_I11_n481
*438 mult_85_I11_n480
*439 mult_85_I11_n479
*440 mult_85_I11_n478
*441 mult_85_I11_n477
*442 mult_85_I11_n476
*443 mult_85_I11_n475
*444 mult_85_I11_n474
*445 mult_85_I11_n473
*446 mult_85_I11_n472
*447 mult_85_I11_n471
*448 mult_85_I11_n470
*449 mult_85_I11_n469
*450 mult_85_I11_n468
*451 mult_85_I11_n467
*452 mult_85_I11_n466
*453 mult_85_I11_n465
*454 mult_85_I11_n464
*455 mult_85_I11_n463
*456 mult_85_I11_n462
*457 mult_85_I11_n461
*458 mult_85_I11_n460
*459 mult_85_I11_n459
*460 mult_85_I11_n458
*461 mult_85_I11_n457
*462 mult_85_I11_n456
*463 mult_85_I11_n455
*464 mult_85_I11_n454
*465 mult_85_I11_n453
*466 mult_85_I11_n452
*467 mult_85_I11_n451
*468 mult_85_I11_n450
*469 mult_85_I11_n449
*470 mult_85_I11_n448
*471 mult_85_I11_n447
*472 mult_85_I11_n446
*473 mult_85_I11_n445
*474 mult_85_I11_n444
*475 mult_85_I11_n443
*476 mult_85_I11_n442
*477 mult_85_I11_n441
*478 mult_85_I11_n440
*479 mult_85_I11_n439
*480 mult_85_I11_n438
*481 mult_85_I11_n437
*482 mult_85_I11_n436
*483 mult_85_I11_n435
*484 mult_85_I11_n434
*485 mult_85_I11_n433
*486 mult_85_I11_n432
*487 mult_85_I11_n431
*488 mult_85_I11_n430
*489 mult_85_I11_n429
*490 mult_85_I11_n428
*491 mult_85_I11_n427
*492 mult_85_I11_n426
*493 mult_85_I11_n425
*494 mult_85_I11_n424
*495 mult_85_I11_n423
*496 mult_85_I11_n422
*497 mult_85_I11_n421
*498 mult_85_I11_n420
*499 mult_85_I11_n419
*500 mult_85_I11_n418
*501 mult_85_I11_n417
*502 mult_85_I11_n416
*503 mult_85_I11_n415
*504 mult_85_I11_n414
*505 mult_85_I11_n413
*506 mult_85_I11_n412
*507 mult_85_I11_n411
*508 mult_85_I11_n410
*509 mult_85_I11_n409
*510 mult_85_I11_n408
*511 mult_85_I11_n407
*512 mult_85_I11_n406
*513 mult_85_I11_n405
*514 mult_85_I11_n404
*515 mult_85_I11_n403
*516 mult_85_I11_n402
*517 mult_85_I11_n401
*518 mult_85_I11_n400
*519 mult_85_I11_n399
*520 mult_85_I11_n398
*521 mult_85_I11_n397
*522 mult_85_I11_n396
*523 mult_85_I11_n395
*524 mult_85_I11_n394
*525 mult_85_I11_n393
*526 mult_85_I11_n392
*527 mult_85_I11_n391
*528 mult_85_I11_n390
*529 mult_85_I11_n389
*530 mult_85_I11_n388
*531 mult_85_I11_n387
*532 mult_85_I11_n386
*533 mult_85_I11_n385
*534 mult_85_I11_n384
*535 mult_85_I11_n383
*536 mult_85_I11_n382
*537 mult_85_I11_n381
*538 mult_85_I11_n380
*539 mult_85_I11_n379
*540 mult_85_I11_n378
*541 mult_85_I11_n377
*542 mult_85_I11_n376
*543 mult_85_I11_n375
*544 mult_85_I11_n374
*545 mult_85_I11_n210
*546 mult_85_I11_n209
*547 mult_85_I11_n208
*548 mult_85_I11_n207
*549 mult_85_I11_n206
*550 mult_85_I11_n205
*551 mult_85_I11_n204
*552 mult_85_I11_n203
*553 mult_85_I11_n200
*554 mult_85_I11_n199
*555 mult_85_I11_n198
*556 mult_85_I11_n197
*557 mult_85_I11_n196
*558 mult_85_I11_n195
*559 mult_85_I11_n194
*560 mult_85_I11_n193
*561 mult_85_I11_n192
*562 mult_85_I11_n190
*563 mult_85_I11_n189
*564 mult_85_I11_n188
*565 mult_85_I11_n187
*566 mult_85_I11_n186
*567 mult_85_I11_n185
*568 mult_85_I11_n184
*569 mult_85_I11_n183
*570 mult_85_I11_n182
*571 mult_85_I11_n181
*572 mult_85_I11_n179
*573 mult_85_I11_n178
*574 mult_85_I11_n177
*575 mult_85_I11_n176
*576 mult_85_I11_n175
*577 mult_85_I11_n174
*578 mult_85_I11_n173
*579 mult_85_I11_n172
*580 mult_85_I11_n171
*581 mult_85_I11_n170
*582 mult_85_I11_n168
*583 mult_85_I11_n167
*584 mult_85_I11_n166
*585 mult_85_I11_n164
*586 mult_85_I11_n163
*587 mult_85_I11_n162
*588 mult_85_I11_n161
*589 mult_85_I11_n160
*590 mult_85_I11_n159
*591 mult_85_I11_n157
*592 mult_85_I11_n155
*593 mult_85_I11_n154
*594 mult_85_I11_n153
*595 mult_85_I11_n152
*596 mult_85_I11_n151
*597 mult_85_I11_n150
*598 mult_85_I11_n149
*599 mult_85_I11_n148
*600 mult_85_I11_n144
*601 mult_85_I11_n143
*602 mult_85_I11_n142
*603 mult_85_I11_n141
*604 mult_85_I11_n123
*605 mult_85_I11_n122
*606 mult_85_I11_n121
*607 mult_85_I11_n120
*608 mult_85_I11_n119
*609 mult_85_I11_n118
*610 mult_85_I11_n117
*611 mult_85_I11_n116
*612 mult_85_I11_n115
*613 mult_85_I11_n114
*614 mult_85_I11_n113
*615 mult_85_I11_n112
*616 mult_85_I11_n111
*617 mult_85_I11_n110
*618 mult_85_I11_n109
*619 mult_85_I11_n108
*620 mult_85_I11_n107
*621 mult_85_I11_n106
*622 mult_85_I11_n105
*623 mult_85_I11_n104
*624 mult_85_I11_n103
*625 mult_85_I11_n102
*626 mult_85_I11_n101
*627 mult_85_I11_n100
*628 mult_85_I11_n99
*629 mult_85_I11_n98
*630 mult_85_I11_n97
*631 mult_85_I11_n96
*632 mult_85_I11_n95
*633 mult_85_I11_n94
*634 mult_85_I11_n93
*635 mult_85_I11_n92
*636 mult_85_I11_n91
*637 mult_85_I11_n90
*638 mult_85_I11_n89
*639 mult_85_I11_n88
*640 mult_85_I11_n87
*641 mult_85_I11_n86
*642 mult_85_I11_n85
*643 mult_85_I11_n84
*644 mult_85_I11_n83
*645 mult_85_I11_n82
*646 mult_85_I11_n81
*647 mult_85_I11_n80
*648 mult_85_I11_n79
*649 mult_85_I11_n78
*650 mult_85_I11_n77
*651 mult_85_I11_n76
*652 mult_85_I11_n75
*653 mult_85_I11_n74
*654 mult_85_I11_n72
*655 mult_85_I11_n71
*656 mult_85_I11_n70
*657 mult_85_I11_n69
*658 mult_85_I11_n68
*659 mult_85_I11_n67
*660 mult_85_I11_n66
*661 mult_85_I11_n65
*662 mult_85_I11_n64
*663 mult_85_I11_n63
*664 mult_85_I11_n62
*665 mult_85_I11_n61
*666 mult_85_I11_n60
*667 mult_85_I11_n59
*668 mult_85_I11_n58
*669 mult_85_I11_n57
*670 mult_85_I11_n56
*671 mult_85_I11_n54
*672 mult_85_I11_n53
*673 mult_85_I11_n52
*674 mult_85_I11_n51
*675 mult_85_I11_n50
*676 mult_85_I11_n49
*677 mult_85_I11_n48
*678 mult_85_I11_n47
*679 mult_85_I11_n46
*680 mult_85_I11_n45
*681 mult_85_I11_n44
*682 mult_85_I11_n43
*683 mult_85_I11_n42
*684 mult_85_I11_n40
*685 mult_85_I11_n39
*686 mult_85_I11_n38
*687 mult_85_I11_n37
*688 mult_85_I11_n36
*689 mult_85_I11_n35
*690 mult_85_I11_n34
*691 mult_85_I11_n33
*692 mult_85_I11_n32
*693 mult_85_I11_n30
*694 mult_85_I11_n29
*695 mult_85_I11_n28
*696 mult_85_I11_n27
*697 mult_85_I11_n26
*698 mult_85_I11_n14
*699 mult_85_I11_n13
*700 mult_85_I11_n12
*701 mult_85_I11_n11
*702 mult_85_I11_n10
*703 mult_85_I11_n9
*704 mult_85_I11_n8
*705 mult_85_I11_n7
*706 mult_85_I11_n6
*707 mult_85_I11_n5
*708 mult_85_I10_n502
*709 mult_85_I10_n501
*710 mult_85_I10_n500
*711 mult_85_I10_n499
*712 mult_85_I10_n498
*713 mult_85_I10_n497
*714 mult_85_I10_n496
*715 mult_85_I10_n495
*716 mult_85_I10_n494
*717 mult_85_I10_n493
*718 mult_85_I10_n492
*719 mult_85_I10_n491
*720 mult_85_I10_n490
*721 mult_85_I10_n489
*722 mult_85_I10_n488
*723 mult_85_I10_n487
*724 mult_85_I10_n486
*725 mult_85_I10_n485
*726 mult_85_I10_n484
*727 mult_85_I10_n483
*728 mult_85_I10_n482
*729 mult_85_I10_n481
*730 mult_85_I10_n480
*731 mult_85_I10_n479
*732 mult_85_I10_n478
*733 mult_85_I10_n477
*734 mult_85_I10_n476
*735 mult_85_I10_n475
*736 mult_85_I10_n474
*737 mult_85_I10_n473
*738 mult_85_I10_n472
*739 mult_85_I10_n471
*740 mult_85_I10_n470
*741 mult_85_I10_n469
*742 mult_85_I10_n468
*743 mult_85_I10_n467
*744 mult_85_I10_n466
*745 mult_85_I10_n465
*746 mult_85_I10_n464
*747 mult_85_I10_n463
*748 mult_85_I10_n462
*749 mult_85_I10_n461
*750 mult_85_I10_n460
*751 mult_85_I10_n459
*752 mult_85_I10_n458
*753 mult_85_I10_n457
*754 mult_85_I10_n456
*755 mult_85_I10_n455
*756 mult_85_I10_n454
*757 mult_85_I10_n453
*758 mult_85_I10_n452
*759 mult_85_I10_n451
*760 mult_85_I10_n450
*761 mult_85_I10_n449
*762 mult_85_I10_n448
*763 mult_85_I10_n447
*764 mult_85_I10_n446
*765 mult_85_I10_n445
*766 mult_85_I10_n444
*767 mult_85_I10_n443
*768 mult_85_I10_n442
*769 mult_85_I10_n441
*770 mult_85_I10_n440
*771 mult_85_I10_n439
*772 mult_85_I10_n438
*773 mult_85_I10_n437
*774 mult_85_I10_n436
*775 mult_85_I10_n435
*776 mult_85_I10_n434
*777 mult_85_I10_n433
*778 mult_85_I10_n432
*779 mult_85_I10_n431
*780 mult_85_I10_n430
*781 mult_85_I10_n429
*782 mult_85_I10_n428
*783 mult_85_I10_n427
*784 mult_85_I10_n426
*785 mult_85_I10_n425
*786 mult_85_I10_n424
*787 mult_85_I10_n423
*788 mult_85_I10_n422
*789 mult_85_I10_n421
*790 mult_85_I10_n420
*791 mult_85_I10_n419
*792 mult_85_I10_n418
*793 mult_85_I10_n417
*794 mult_85_I10_n416
*795 mult_85_I10_n415
*796 mult_85_I10_n414
*797 mult_85_I10_n413
*798 mult_85_I10_n412
*799 mult_85_I10_n411
*800 mult_85_I10_n410
*801 mult_85_I10_n409
*802 mult_85_I10_n408
*803 mult_85_I10_n407
*804 mult_85_I10_n406
*805 mult_85_I10_n405
*806 mult_85_I10_n404
*807 mult_85_I10_n403
*808 mult_85_I10_n402
*809 mult_85_I10_n401
*810 mult_85_I10_n400
*811 mult_85_I10_n399
*812 mult_85_I10_n398
*813 mult_85_I10_n397
*814 mult_85_I10_n396
*815 mult_85_I10_n395
*816 mult_85_I10_n394
*817 mult_85_I10_n393
*818 mult_85_I10_n392
*819 mult_85_I10_n391
*820 mult_85_I10_n390
*821 mult_85_I10_n389
*822 mult_85_I10_n388
*823 mult_85_I10_n387
*824 mult_85_I10_n386
*825 mult_85_I10_n385
*826 mult_85_I10_n384
*827 mult_85_I10_n383
*828 mult_85_I10_n382
*829 mult_85_I10_n381
*830 mult_85_I10_n380
*831 mult_85_I10_n379
*832 mult_85_I10_n378
*833 mult_85_I10_n377
*834 mult_85_I10_n376
*835 mult_85_I10_n375
*836 mult_85_I10_n374
*837 mult_85_I10_n210
*838 mult_85_I10_n209
*839 mult_85_I10_n208
*840 mult_85_I10_n207
*841 mult_85_I10_n206
*842 mult_85_I10_n205
*843 mult_85_I10_n204
*844 mult_85_I10_n203
*845 mult_85_I10_n200
*846 mult_85_I10_n199
*847 mult_85_I10_n198
*848 mult_85_I10_n197
*849 mult_85_I10_n196
*850 mult_85_I10_n195
*851 mult_85_I10_n194
*852 mult_85_I10_n193
*853 mult_85_I10_n192
*854 mult_85_I10_n190
*855 mult_85_I10_n189
*856 mult_85_I10_n188
*857 mult_85_I10_n187
*858 mult_85_I10_n186
*859 mult_85_I10_n185
*860 mult_85_I10_n184
*861 mult_85_I10_n183
*862 mult_85_I10_n182
*863 mult_85_I10_n181
*864 mult_85_I10_n179
*865 mult_85_I10_n178
*866 mult_85_I10_n177
*867 mult_85_I10_n176
*868 mult_85_I10_n175
*869 mult_85_I10_n174
*870 mult_85_I10_n173
*871 mult_85_I10_n172
*872 mult_85_I10_n171
*873 mult_85_I10_n170
*874 mult_85_I10_n168
*875 mult_85_I10_n167
*876 mult_85_I10_n166
*877 mult_85_I10_n164
*878 mult_85_I10_n163
*879 mult_85_I10_n162
*880 mult_85_I10_n161
*881 mult_85_I10_n160
*882 mult_85_I10_n159
*883 mult_85_I10_n157
*884 mult_85_I10_n155
*885 mult_85_I10_n154
*886 mult_85_I10_n153
*887 mult_85_I10_n152
*888 mult_85_I10_n151
*889 mult_85_I10_n150
*890 mult_85_I10_n149
*891 mult_85_I10_n148
*892 mult_85_I10_n144
*893 mult_85_I10_n143
*894 mult_85_I10_n142
*895 mult_85_I10_n141
*896 mult_85_I10_n123
*897 mult_85_I10_n122
*898 mult_85_I10_n121
*899 mult_85_I10_n120
*900 mult_85_I10_n119
*901 mult_85_I10_n118
*902 mult_85_I10_n117
*903 mult_85_I10_n116
*904 mult_85_I10_n115
*905 mult_85_I10_n114
*906 mult_85_I10_n113
*907 mult_85_I10_n112
*908 mult_85_I10_n111
*909 mult_85_I10_n110
*910 mult_85_I10_n109
*911 mult_85_I10_n108
*912 mult_85_I10_n107
*913 mult_85_I10_n106
*914 mult_85_I10_n105
*915 mult_85_I10_n104
*916 mult_85_I10_n103
*917 mult_85_I10_n102
*918 mult_85_I10_n101
*919 mult_85_I10_n100
*920 mult_85_I10_n99
*921 mult_85_I10_n98
*922 mult_85_I10_n97
*923 mult_85_I10_n96
*924 mult_85_I10_n95
*925 mult_85_I10_n94
*926 mult_85_I10_n93
*927 mult_85_I10_n92
*928 mult_85_I10_n91
*929 mult_85_I10_n90
*930 mult_85_I10_n89
*931 mult_85_I10_n88
*932 mult_85_I10_n87
*933 mult_85_I10_n86
*934 mult_85_I10_n85
*935 mult_85_I10_n84
*936 mult_85_I10_n83
*937 mult_85_I10_n82
*938 mult_85_I10_n81
*939 mult_85_I10_n80
*940 mult_85_I10_n79
*941 mult_85_I10_n78
*942 mult_85_I10_n77
*943 mult_85_I10_n76
*944 mult_85_I10_n75
*945 mult_85_I10_n74
*946 mult_85_I10_n72
*947 mult_85_I10_n71
*948 mult_85_I10_n70
*949 mult_85_I10_n69
*950 mult_85_I10_n68
*951 mult_85_I10_n67
*952 mult_85_I10_n66
*953 mult_85_I10_n65
*954 mult_85_I10_n64
*955 mult_85_I10_n63
*956 mult_85_I10_n62
*957 mult_85_I10_n61
*958 mult_85_I10_n60
*959 mult_85_I10_n59
*960 mult_85_I10_n58
*961 mult_85_I10_n57
*962 mult_85_I10_n56
*963 mult_85_I10_n54
*964 mult_85_I10_n53
*965 mult_85_I10_n52
*966 mult_85_I10_n51
*967 mult_85_I10_n50
*968 mult_85_I10_n49
*969 mult_85_I10_n48
*970 mult_85_I10_n47
*971 mult_85_I10_n46
*972 mult_85_I10_n45
*973 mult_85_I10_n44
*974 mult_85_I10_n43
*975 mult_85_I10_n42
*976 mult_85_I10_n40
*977 mult_85_I10_n39
*978 mult_85_I10_n38
*979 mult_85_I10_n37
*980 mult_85_I10_n36
*981 mult_85_I10_n35
*982 mult_85_I10_n34
*983 mult_85_I10_n33
*984 mult_85_I10_n32
*985 mult_85_I10_n30
*986 mult_85_I10_n29
*987 mult_85_I10_n28
*988 mult_85_I10_n27
*989 mult_85_I10_n26
*990 mult_85_I10_n14
*991 mult_85_I10_n13
*992 mult_85_I10_n12
*993 mult_85_I10_n11
*994 mult_85_I10_n10
*995 mult_85_I10_n9
*996 mult_85_I10_n8
*997 mult_85_I10_n7
*998 mult_85_I10_n6
*999 mult_85_I10_n5
*1000 mult_85_I9_n502
*1001 mult_85_I9_n501
*1002 mult_85_I9_n500
*1003 mult_85_I9_n499
*1004 mult_85_I9_n498
*1005 mult_85_I9_n497
*1006 mult_85_I9_n496
*1007 mult_85_I9_n495
*1008 mult_85_I9_n494
*1009 mult_85_I9_n493
*1010 mult_85_I9_n492
*1011 mult_85_I9_n491
*1012 mult_85_I9_n490
*1013 mult_85_I9_n489
*1014 mult_85_I9_n488
*1015 mult_85_I9_n487
*1016 mult_85_I9_n486
*1017 mult_85_I9_n485
*1018 mult_85_I9_n484
*1019 mult_85_I9_n483
*1020 mult_85_I9_n482
*1021 mult_85_I9_n481
*1022 mult_85_I9_n480
*1023 mult_85_I9_n479
*1024 mult_85_I9_n478
*1025 mult_85_I9_n477
*1026 mult_85_I9_n476
*1027 mult_85_I9_n475
*1028 mult_85_I9_n474
*1029 mult_85_I9_n473
*1030 mult_85_I9_n472
*1031 mult_85_I9_n471
*1032 mult_85_I9_n470
*1033 mult_85_I9_n469
*1034 mult_85_I9_n468
*1035 mult_85_I9_n467
*1036 mult_85_I9_n466
*1037 mult_85_I9_n465
*1038 mult_85_I9_n464
*1039 mult_85_I9_n463
*1040 mult_85_I9_n462
*1041 mult_85_I9_n461
*1042 mult_85_I9_n460
*1043 mult_85_I9_n459
*1044 mult_85_I9_n458
*1045 mult_85_I9_n457
*1046 mult_85_I9_n456
*1047 mult_85_I9_n455
*1048 mult_85_I9_n454
*1049 mult_85_I9_n453
*1050 mult_85_I9_n452
*1051 mult_85_I9_n451
*1052 mult_85_I9_n450
*1053 mult_85_I9_n449
*1054 mult_85_I9_n448
*1055 mult_85_I9_n447
*1056 mult_85_I9_n446
*1057 mult_85_I9_n445
*1058 mult_85_I9_n444
*1059 mult_85_I9_n443
*1060 mult_85_I9_n442
*1061 mult_85_I9_n441
*1062 mult_85_I9_n440
*1063 mult_85_I9_n439
*1064 mult_85_I9_n438
*1065 mult_85_I9_n437
*1066 mult_85_I9_n436
*1067 mult_85_I9_n435
*1068 mult_85_I9_n434
*1069 mult_85_I9_n433
*1070 mult_85_I9_n432
*1071 mult_85_I9_n431
*1072 mult_85_I9_n430
*1073 mult_85_I9_n429
*1074 mult_85_I9_n428
*1075 mult_85_I9_n427
*1076 mult_85_I9_n426
*1077 mult_85_I9_n425
*1078 mult_85_I9_n424
*1079 mult_85_I9_n423
*1080 mult_85_I9_n422
*1081 mult_85_I9_n421
*1082 mult_85_I9_n420
*1083 mult_85_I9_n419
*1084 mult_85_I9_n418
*1085 mult_85_I9_n417
*1086 mult_85_I9_n416
*1087 mult_85_I9_n415
*1088 mult_85_I9_n414
*1089 mult_85_I9_n413
*1090 mult_85_I9_n412
*1091 mult_85_I9_n411
*1092 mult_85_I9_n410
*1093 mult_85_I9_n409
*1094 mult_85_I9_n408
*1095 mult_85_I9_n407
*1096 mult_85_I9_n406
*1097 mult_85_I9_n405
*1098 mult_85_I9_n404
*1099 mult_85_I9_n403
*1100 mult_85_I9_n402
*1101 mult_85_I9_n401
*1102 mult_85_I9_n400
*1103 mult_85_I9_n399
*1104 mult_85_I9_n398
*1105 mult_85_I9_n397
*1106 mult_85_I9_n396
*1107 mult_85_I9_n395
*1108 mult_85_I9_n394
*1109 mult_85_I9_n393
*1110 mult_85_I9_n392
*1111 mult_85_I9_n391
*1112 mult_85_I9_n390
*1113 mult_85_I9_n389
*1114 mult_85_I9_n388
*1115 mult_85_I9_n387
*1116 mult_85_I9_n386
*1117 mult_85_I9_n385
*1118 mult_85_I9_n384
*1119 mult_85_I9_n383
*1120 mult_85_I9_n382
*1121 mult_85_I9_n381
*1122 mult_85_I9_n380
*1123 mult_85_I9_n379
*1124 mult_85_I9_n378
*1125 mult_85_I9_n377
*1126 mult_85_I9_n376
*1127 mult_85_I9_n375
*1128 mult_85_I9_n374
*1129 mult_85_I9_n210
*1130 mult_85_I9_n209
*1131 mult_85_I9_n208
*1132 mult_85_I9_n207
*1133 mult_85_I9_n206
*1134 mult_85_I9_n205
*1135 mult_85_I9_n204
*1136 mult_85_I9_n203
*1137 mult_85_I9_n200
*1138 mult_85_I9_n199
*1139 mult_85_I9_n198
*1140 mult_85_I9_n197
*1141 mult_85_I9_n196
*1142 mult_85_I9_n195
*1143 mult_85_I9_n194
*1144 mult_85_I9_n193
*1145 mult_85_I9_n192
*1146 mult_85_I9_n190
*1147 mult_85_I9_n189
*1148 mult_85_I9_n188
*1149 mult_85_I9_n187
*1150 mult_85_I9_n186
*1151 mult_85_I9_n185
*1152 mult_85_I9_n184
*1153 mult_85_I9_n183
*1154 mult_85_I9_n182
*1155 mult_85_I9_n181
*1156 mult_85_I9_n179
*1157 mult_85_I9_n178
*1158 mult_85_I9_n177
*1159 mult_85_I9_n176
*1160 mult_85_I9_n175
*1161 mult_85_I9_n174
*1162 mult_85_I9_n173
*1163 mult_85_I9_n172
*1164 mult_85_I9_n171
*1165 mult_85_I9_n170
*1166 mult_85_I9_n168
*1167 mult_85_I9_n167
*1168 mult_85_I9_n166
*1169 mult_85_I9_n164
*1170 mult_85_I9_n163
*1171 mult_85_I9_n162
*1172 mult_85_I9_n161
*1173 mult_85_I9_n160
*1174 mult_85_I9_n159
*1175 mult_85_I9_n157
*1176 mult_85_I9_n155
*1177 mult_85_I9_n154
*1178 mult_85_I9_n153
*1179 mult_85_I9_n152
*1180 mult_85_I9_n151
*1181 mult_85_I9_n150
*1182 mult_85_I9_n149
*1183 mult_85_I9_n148
*1184 mult_85_I9_n144
*1185 mult_85_I9_n143
*1186 mult_85_I9_n142
*1187 mult_85_I9_n141
*1188 mult_85_I9_n123
*1189 mult_85_I9_n122
*1190 mult_85_I9_n121
*1191 mult_85_I9_n120
*1192 mult_85_I9_n119
*1193 mult_85_I9_n118
*1194 mult_85_I9_n117
*1195 mult_85_I9_n116
*1196 mult_85_I9_n115
*1197 mult_85_I9_n114
*1198 mult_85_I9_n113
*1199 mult_85_I9_n112
*1200 mult_85_I9_n111
*1201 mult_85_I9_n110
*1202 mult_85_I9_n109
*1203 mult_85_I9_n108
*1204 mult_85_I9_n107
*1205 mult_85_I9_n106
*1206 mult_85_I9_n105
*1207 mult_85_I9_n104
*1208 mult_85_I9_n103
*1209 mult_85_I9_n102
*1210 mult_85_I9_n101
*1211 mult_85_I9_n100
*1212 mult_85_I9_n99
*1213 mult_85_I9_n98
*1214 mult_85_I9_n97
*1215 mult_85_I9_n96
*1216 mult_85_I9_n95
*1217 mult_85_I9_n94
*1218 mult_85_I9_n93
*1219 mult_85_I9_n92
*1220 mult_85_I9_n91
*1221 mult_85_I9_n90
*1222 mult_85_I9_n89
*1223 mult_85_I9_n88
*1224 mult_85_I9_n87
*1225 mult_85_I9_n86
*1226 mult_85_I9_n85
*1227 mult_85_I9_n84
*1228 mult_85_I9_n83
*1229 mult_85_I9_n82
*1230 mult_85_I9_n81
*1231 mult_85_I9_n80
*1232 mult_85_I9_n79
*1233 mult_85_I9_n78
*1234 mult_85_I9_n77
*1235 mult_85_I9_n76
*1236 mult_85_I9_n75
*1237 mult_85_I9_n74
*1238 mult_85_I9_n72
*1239 mult_85_I9_n71
*1240 mult_85_I9_n70
*1241 mult_85_I9_n69
*1242 mult_85_I9_n68
*1243 mult_85_I9_n67
*1244 mult_85_I9_n66
*1245 mult_85_I9_n65
*1246 mult_85_I9_n64
*1247 mult_85_I9_n63
*1248 mult_85_I9_n62
*1249 mult_85_I9_n61
*1250 mult_85_I9_n60
*1251 mult_85_I9_n59
*1252 mult_85_I9_n58
*1253 mult_85_I9_n57
*1254 mult_85_I9_n56
*1255 mult_85_I9_n54
*1256 mult_85_I9_n53
*1257 mult_85_I9_n52
*1258 mult_85_I9_n51
*1259 mult_85_I9_n50
*1260 mult_85_I9_n49
*1261 mult_85_I9_n48
*1262 mult_85_I9_n47
*1263 mult_85_I9_n46
*1264 mult_85_I9_n45
*1265 mult_85_I9_n44
*1266 mult_85_I9_n43
*1267 mult_85_I9_n42
*1268 mult_85_I9_n40
*1269 mult_85_I9_n39
*1270 mult_85_I9_n38
*1271 mult_85_I9_n37
*1272 mult_85_I9_n36
*1273 mult_85_I9_n35
*1274 mult_85_I9_n34
*1275 mult_85_I9_n33
*1276 mult_85_I9_n32
*1277 mult_85_I9_n30
*1278 mult_85_I9_n29
*1279 mult_85_I9_n28
*1280 mult_85_I9_n27
*1281 mult_85_I9_n26
*1282 mult_85_I9_n14
*1283 mult_85_I9_n13
*1284 mult_85_I9_n12
*1285 mult_85_I9_n11
*1286 mult_85_I9_n10
*1287 mult_85_I9_n9
*1288 mult_85_I9_n8
*1289 mult_85_I9_n7
*1290 mult_85_I9_n6
*1291 mult_85_I9_n5
*1292 mult_85_I8_n502
*1293 mult_85_I8_n501
*1294 mult_85_I8_n500
*1295 mult_85_I8_n499
*1296 mult_85_I8_n498
*1297 mult_85_I8_n497
*1298 mult_85_I8_n496
*1299 mult_85_I8_n495
*1300 mult_85_I8_n494
*1301 mult_85_I8_n493
*1302 mult_85_I8_n492
*1303 mult_85_I8_n491
*1304 mult_85_I8_n490
*1305 mult_85_I8_n489
*1306 mult_85_I8_n488
*1307 mult_85_I8_n487
*1308 mult_85_I8_n486
*1309 mult_85_I8_n485
*1310 mult_85_I8_n484
*1311 mult_85_I8_n483
*1312 mult_85_I8_n482
*1313 mult_85_I8_n481
*1314 mult_85_I8_n480
*1315 mult_85_I8_n479
*1316 mult_85_I8_n478
*1317 mult_85_I8_n477
*1318 mult_85_I8_n476
*1319 mult_85_I8_n475
*1320 mult_85_I8_n474
*1321 mult_85_I8_n473
*1322 mult_85_I8_n472
*1323 mult_85_I8_n471
*1324 mult_85_I8_n470
*1325 mult_85_I8_n469
*1326 mult_85_I8_n468
*1327 mult_85_I8_n467
*1328 mult_85_I8_n466
*1329 mult_85_I8_n465
*1330 mult_85_I8_n464
*1331 mult_85_I8_n463
*1332 mult_85_I8_n462
*1333 mult_85_I8_n461
*1334 mult_85_I8_n460
*1335 mult_85_I8_n459
*1336 mult_85_I8_n458
*1337 mult_85_I8_n457
*1338 mult_85_I8_n456
*1339 mult_85_I8_n455
*1340 mult_85_I8_n454
*1341 mult_85_I8_n453
*1342 mult_85_I8_n452
*1343 mult_85_I8_n451
*1344 mult_85_I8_n450
*1345 mult_85_I8_n449
*1346 mult_85_I8_n448
*1347 mult_85_I8_n447
*1348 mult_85_I8_n446
*1349 mult_85_I8_n445
*1350 mult_85_I8_n444
*1351 mult_85_I8_n443
*1352 mult_85_I8_n442
*1353 mult_85_I8_n441
*1354 mult_85_I8_n440
*1355 mult_85_I8_n439
*1356 mult_85_I8_n438
*1357 mult_85_I8_n437
*1358 mult_85_I8_n436
*1359 mult_85_I8_n435
*1360 mult_85_I8_n434
*1361 mult_85_I8_n433
*1362 mult_85_I8_n432
*1363 mult_85_I8_n431
*1364 mult_85_I8_n430
*1365 mult_85_I8_n429
*1366 mult_85_I8_n428
*1367 mult_85_I8_n427
*1368 mult_85_I8_n426
*1369 mult_85_I8_n425
*1370 mult_85_I8_n424
*1371 mult_85_I8_n423
*1372 mult_85_I8_n422
*1373 mult_85_I8_n421
*1374 mult_85_I8_n420
*1375 mult_85_I8_n419
*1376 mult_85_I8_n418
*1377 mult_85_I8_n417
*1378 mult_85_I8_n416
*1379 mult_85_I8_n415
*1380 mult_85_I8_n414
*1381 mult_85_I8_n413
*1382 mult_85_I8_n412
*1383 mult_85_I8_n411
*1384 mult_85_I8_n410
*1385 mult_85_I8_n409
*1386 mult_85_I8_n408
*1387 mult_85_I8_n407
*1388 mult_85_I8_n406
*1389 mult_85_I8_n405
*1390 mult_85_I8_n404
*1391 mult_85_I8_n403
*1392 mult_85_I8_n402
*1393 mult_85_I8_n401
*1394 mult_85_I8_n400
*1395 mult_85_I8_n399
*1396 mult_85_I8_n398
*1397 mult_85_I8_n397
*1398 mult_85_I8_n396
*1399 mult_85_I8_n395
*1400 mult_85_I8_n394
*1401 mult_85_I8_n393
*1402 mult_85_I8_n392
*1403 mult_85_I8_n391
*1404 mult_85_I8_n390
*1405 mult_85_I8_n389
*1406 mult_85_I8_n388
*1407 mult_85_I8_n387
*1408 mult_85_I8_n386
*1409 mult_85_I8_n385
*1410 mult_85_I8_n384
*1411 mult_85_I8_n383
*1412 mult_85_I8_n382
*1413 mult_85_I8_n381
*1414 mult_85_I8_n380
*1415 mult_85_I8_n379
*1416 mult_85_I8_n378
*1417 mult_85_I8_n377
*1418 mult_85_I8_n376
*1419 mult_85_I8_n375
*1420 mult_85_I8_n374
*1421 mult_85_I8_n210
*1422 mult_85_I8_n209
*1423 mult_85_I8_n208
*1424 mult_85_I8_n207
*1425 mult_85_I8_n206
*1426 mult_85_I8_n205
*1427 mult_85_I8_n204
*1428 mult_85_I8_n203
*1429 mult_85_I8_n200
*1430 mult_85_I8_n199
*1431 mult_85_I8_n198
*1432 mult_85_I8_n197
*1433 mult_85_I8_n196
*1434 mult_85_I8_n195
*1435 mult_85_I8_n194
*1436 mult_85_I8_n193
*1437 mult_85_I8_n192
*1438 mult_85_I8_n190
*1439 mult_85_I8_n189
*1440 mult_85_I8_n188
*1441 mult_85_I8_n187
*1442 mult_85_I8_n186
*1443 mult_85_I8_n185
*1444 mult_85_I8_n184
*1445 mult_85_I8_n183
*1446 mult_85_I8_n182
*1447 mult_85_I8_n181
*1448 mult_85_I8_n179
*1449 mult_85_I8_n178
*1450 mult_85_I8_n177
*1451 mult_85_I8_n176
*1452 mult_85_I8_n175
*1453 mult_85_I8_n174
*1454 mult_85_I8_n173
*1455 mult_85_I8_n172
*1456 mult_85_I8_n171
*1457 mult_85_I8_n170
*1458 mult_85_I8_n168
*1459 mult_85_I8_n167
*1460 mult_85_I8_n166
*1461 mult_85_I8_n164
*1462 mult_85_I8_n163
*1463 mult_85_I8_n162
*1464 mult_85_I8_n161
*1465 mult_85_I8_n160
*1466 mult_85_I8_n159
*1467 mult_85_I8_n157
*1468 mult_85_I8_n155
*1469 mult_85_I8_n154
*1470 mult_85_I8_n153
*1471 mult_85_I8_n152
*1472 mult_85_I8_n151
*1473 mult_85_I8_n150
*1474 mult_85_I8_n149
*1475 mult_85_I8_n148
*1476 mult_85_I8_n144
*1477 mult_85_I8_n143
*1478 mult_85_I8_n142
*1479 mult_85_I8_n141
*1480 mult_85_I8_n123
*1481 mult_85_I8_n122
*1482 mult_85_I8_n121
*1483 mult_85_I8_n120
*1484 mult_85_I8_n119
*1485 mult_85_I8_n118
*1486 mult_85_I8_n117
*1487 mult_85_I8_n116
*1488 mult_85_I8_n115
*1489 mult_85_I8_n114
*1490 mult_85_I8_n113
*1491 mult_85_I8_n112
*1492 mult_85_I8_n111
*1493 mult_85_I8_n110
*1494 mult_85_I8_n109
*1495 mult_85_I8_n108
*1496 mult_85_I8_n107
*1497 mult_85_I8_n106
*1498 mult_85_I8_n105
*1499 mult_85_I8_n104
*1500 mult_85_I8_n103
*1501 mult_85_I8_n102
*1502 mult_85_I8_n101
*1503 mult_85_I8_n100
*1504 mult_85_I8_n99
*1505 mult_85_I8_n98
*1506 mult_85_I8_n97
*1507 mult_85_I8_n96
*1508 mult_85_I8_n95
*1509 mult_85_I8_n94
*1510 mult_85_I8_n93
*1511 mult_85_I8_n92
*1512 mult_85_I8_n91
*1513 mult_85_I8_n90
*1514 mult_85_I8_n89
*1515 mult_85_I8_n88
*1516 mult_85_I8_n87
*1517 mult_85_I8_n86
*1518 mult_85_I8_n85
*1519 mult_85_I8_n84
*1520 mult_85_I8_n83
*1521 mult_85_I8_n82
*1522 mult_85_I8_n81
*1523 mult_85_I8_n80
*1524 mult_85_I8_n79
*1525 mult_85_I8_n78
*1526 mult_85_I8_n77
*1527 mult_85_I8_n76
*1528 mult_85_I8_n75
*1529 mult_85_I8_n74
*1530 mult_85_I8_n72
*1531 mult_85_I8_n71
*1532 mult_85_I8_n70
*1533 mult_85_I8_n69
*1534 mult_85_I8_n68
*1535 mult_85_I8_n67
*1536 mult_85_I8_n66
*1537 mult_85_I8_n65
*1538 mult_85_I8_n64
*1539 mult_85_I8_n63
*1540 mult_85_I8_n62
*1541 mult_85_I8_n61
*1542 mult_85_I8_n60
*1543 mult_85_I8_n59
*1544 mult_85_I8_n58
*1545 mult_85_I8_n57
*1546 mult_85_I8_n56
*1547 mult_85_I8_n54
*1548 mult_85_I8_n53
*1549 mult_85_I8_n52
*1550 mult_85_I8_n51
*1551 mult_85_I8_n50
*1552 mult_85_I8_n49
*1553 mult_85_I8_n48
*1554 mult_85_I8_n47
*1555 mult_85_I8_n46
*1556 mult_85_I8_n45
*1557 mult_85_I8_n44
*1558 mult_85_I8_n43
*1559 mult_85_I8_n42
*1560 mult_85_I8_n40
*1561 mult_85_I8_n39
*1562 mult_85_I8_n38
*1563 mult_85_I8_n37